#======================================================================

# CRYSTAL DATA

#----------------------------------------------------------------------

data_VESTA_phase_1


_pd_phase_name                         'Oxygen molecules / crystal minimum'
_cell_length_a                         3.47485
_cell_length_b                         4.87064
_cell_length_c                         3.47485
_cell_angle_alpha                      114.92211
_cell_angle_beta                       90.09077
_cell_angle_gamma                      114.92211
_symmetry_space_group_name_H-M         'P 1'
_symmetry_Int_Tables_number            1

loop_
_symmetry_equiv_pos_as_xyz
   'x, y, z'

loop_
   _atom_site_label
   _atom_site_occupancy
   _atom_site_fract_x
   _atom_site_fract_y
   _atom_site_fract_z
   _atom_site_adp_type
   _atom_site_B_iso_or_equiv
   _atom_site_type_symbol
   O1         1.0     0.911251      0.842315      0.911251     Biso  1.000000 O
   O2         1.0     0.088749      0.157685      0.088749     Biso  1.000000 O
